*Heading
** Job name: StaticAnalysisRefinedMesh Model name: Model-1
** Generated by: Abaqus/CAE 2016
*Preprint, echo=NO, model=NO, history=NO, contact=NO
**
** PARTS
**
*Part, name=LargePipe
*End Part
**  
**
** ASSEMBLY
**
*Assembly, name=Assembly
**  
*Instance, name=LargePipe-1, part=LargePipe
*Node
      1,         9.25,   9.48683262,           0.
      2,           0.,        13.25,         9.25
      3,           0.,          25.,         9.25
      4,         9.25,          25.,           0.
      5,        13.25,           0.,           0.
      6,        13.25,           0.,          40.
      7,           0.,        13.25,          40.
      8,   8.91603947,   9.80136395,   2.46307588
      9,   7.98748446,   10.5717831,   4.66503954
     10,   6.56685448,   11.5082111,   6.51451635
     11,   4.70934963,   12.3848505,   7.96144009
     12,   2.47415304,   13.0169535,    8.9129715
     13,           0.,    15.208333,         9.25
     14,           0.,    17.166666,         9.25
     15,           0.,       19.125,         9.25
     16,           0.,    21.083334,         9.25
     17,           0.,    23.041666,         9.25
     18,   2.39407611,          25.,    8.9348135
     19,        4.625,          25.,   8.01073456
     20,   6.54073763,          25.,   6.54073763
** ... 369 like lines cut
*Element, type=S8RT
 1,   1,   8,  58,  27, 140, 141, 142, 143
 2,   8,   9,  59,  58, 144, 145, 146, 141
 3,   9,  10,  60,  59, 147, 148, 149, 145
 4,  10,  11,  61,  60, 150, 151, 152, 148
 5,  11,  12,  62,  61, 153, 154, 155, 151
 6,  12,   2,  13,  62, 156, 157, 158, 154
 7,  27,  58,  63,  26, 142, 159, 160, 161
 8,  58,  59,  64,  63, 146, 162, 163, 159
 9,  59,  60,  65,  64, 149, 164, 165, 162
10,  60,  61,  66,  65, 152, 166, 167, 164
11,  61,  62,  67,  66, 155, 168, 169, 166
12,  62,  13,  14,  67, 158, 170, 171, 168
13,  26,  63,  68,  25, 160, 172, 173, 174
14,  63,  64,  69,  68, 163, 175, 176, 172
15,  64,  65,  70,  69, 165, 177, 178, 175
16,  65,  66,  71,  70, 167, 179, 180, 177
17,  66,  67,  72,  71, 169, 181, 182, 179
18,  67,  14,  15,  72, 171, 183, 184, 181
19,  25,  68,  73,  24, 173, 185, 186, 187
20,  68,  69,  74,  73, 176, 188, 189, 185
** ... 92 like lines cut
*Nset, nset=Set-1, generate
   1,  389,    1
*Elset, elset=Set-1, generate
   1,  112,    1
** Section: PipeSection
*Shell Section, elset=Set-1, material=PipeMaterial
2.5, 5
*End Instance
**  
*Nset, nset=Set-8, instance=LargePipe-1
   2,   3,   7,  13,  14,  15,  16,  17,  28,  29,  30,  31,  32,  33,  34,  35
  36,  37,  38, 157, 170, 183, 196, 209, 222, 224, 228, 320, 328, 336, 344, 352
 360, 368, 376, 384, 389
*Elset, elset=Set-8, instance=LargePipe-1
   6,  12,  18,  24,  30,  36,  37,  38,  76,  80,  84,  88,  92,  96, 100, 104
 108, 112
*Nset, nset=Set-9, instance=LargePipe-1
   1,   4,   5,  23,  24,  25,  26,  27,  39,  40,  41, 143, 161, 174, 187, 200
 213, 244, 248, 250, 253
*Elset, elset=Set-9, instance=LargePipe-1
  1,  7, 13, 19, 25, 31, 46, 48, 49, 50
*Nset, nset=Set-10, instance=LargePipe-1
   5,   6,  42,  43,  44,  45,  46,  47,  48,  49,  50,  51,  52, 254, 258, 260
 263, 266, 269, 272, 275, 278, 281, 284, 287
*Elset, elset=Set-10, instance=LargePipe-1
 50, 52, 53, 54, 55, 56, 57, 58, 59, 60, 61, 62
*Nset, nset=Set-35, instance=LargePipe-1, generate
   1,  389,    1
*Elset, elset=Set-35, instance=LargePipe-1, generate
   1,  112,    1
*Nset, nset=Set-36, instance=LargePipe-1
   6,   7,  53,  54,  55,  56,  57, 288, 308, 310, 313, 316, 319
*Elset, elset=Set-36, instance=LargePipe-1
 62, 72, 73, 74, 75, 76
*Nset, nset=Set-37, instance=LargePipe-1
   2,   3,   7,  13,  14,  15,  16,  17,  28,  29,  30,  31,  32,  33,  34,  35
  36,  37,  38, 157, 170, 183, 196, 209, 222, 224, 228, 320, 328, 336, 344, 352
 360, 368, 376, 384, 389
*Elset, elset=Set-37, instance=LargePipe-1
   6,  12,  18,  24,  30,  36,  37,  38,  76,  80,  84,  88,  92,  96, 100, 104
 108, 112
*Nset, nset=Set-38, instance=LargePipe-1
   1,   4,   5,  23,  24,  25,  26,  27,  39,  40,  41, 143, 161, 174, 187, 200
 213, 244, 248, 250, 253
*Elset, elset=Set-38, instance=LargePipe-1
  1,  7, 13, 19, 25, 31, 46, 48, 49, 50
*Nset, nset=Set-39, instance=LargePipe-1
   5,   6,  42,  43,  44,  45,  46,  47,  48,  49,  50,  51,  52, 254, 258, 260
 263, 266, 269, 272, 275, 278, 281, 284, 287
*Elset, elset=Set-39, instance=LargePipe-1
 50, 52, 53, 54, 55, 56, 57, 58, 59, 60, 61, 62
*Nset, nset=Set-41, instance=LargePipe-1
   2,   3,   7,  13,  14,  15,  16,  17,  28,  29,  30,  31,  32,  33,  34,  35
  36,  37,  38, 157, 170, 183, 196, 209, 222, 224, 228, 320, 328, 336, 344, 352
 360, 368, 376, 384, 389
*Elset, elset=Set-41, instance=LargePipe-1
   6,  12,  18,  24,  30,  36,  37,  38,  76,  80,  84,  88,  92,  96, 100, 104
 108, 112
*Nset, nset=Set-42, instance=LargePipe-1
   1,   4,   5,  23,  24,  25,  26,  27,  39,  40,  41, 143, 161, 174, 187, 200
 213, 244, 248, 250, 253
*Elset, elset=Set-42, instance=LargePipe-1
  1,  7, 13, 19, 25, 31, 46, 48, 49, 50
*Nset, nset=Set-43, instance=LargePipe-1
   5,   6,  42,  43,  44,  45,  46,  47,  48,  49,  50,  51,  52, 254, 258, 260
 263, 266, 269, 272, 275, 278, 281, 284, 287
*Elset, elset=Set-43, instance=LargePipe-1
 50, 52, 53, 54, 55, 56, 57, 58, 59, 60, 61, 62
*Elset, elset=_Surf-1_E3, internal, instance=LargePipe-1, generate
 31,  36,   1
*Surface, type=ELEMENT, name=Surf-1
_Surf-1_E3, E3
*Elset, elset=_Surf-2_E3, internal, instance=LargePipe-1, generate
 31,  36,   1
*Surface, type=ELEMENT, name=Surf-2
_Surf-2_E3, E3
*Elset, elset=_Surf-3_E3, internal, instance=LargePipe-1, generate
 31,  36,   1
*Surface, type=ELEMENT, name=Surf-3
_Surf-3_E3, E3
*End Assembly
** 
** MATERIALS
** 
*Material, name=PipeMaterial
*Conductivity
 0.00023,
*Density
 0.0008,
*Elastic
 2.9e+07, 0.3
*Expansion
 7e-06,
** ----------------------------------------------------------------
** 
** STEP: StepForStaticAnalysis
** 
*Step, name=StepForStaticAnalysis, nlgeom=NO
*Static
1., 1., 1e-05, 1.
** 
** BOUNDARY CONDITIONS
** 
** Name: CenterLineLongPipeOnly Type: Displacement/Rotation
*Boundary
Set-43, 2, 2
Set-43, 4, 4
Set-43, 6, 6
** Name: LongLineCentralPipeBoth Type: Displacement/Rotation
*Boundary
Set-41, 1, 1
Set-41, 5, 5
Set-41, 6, 6
** Name: ShortLineCentreSectionLongAndShortPipe Type: Displacement/Rotation
*Boundary
Set-42, 3, 3
Set-42, 4, 4
Set-42, 5, 5
** 
** LOADS
** 
** Name: AppliedPressure   Type: Shell edge load
*Dsload
Surf-3, EDNOR, 55000.
** 
** OUTPUT REQUESTS
** 
*Restart, write, frequency=0
** 
** FIELD OUTPUT: F-Output-1
** 
*Output, field, variable=PRESELECT
** 
** HISTORY OUTPUT: H-Output-1
** 
*Output, history, variable=PRESELECT
*End Step
