*Heading
** Job name: DynamicAnalysisStep Model name: Model-1
** Generated by: Abaqus/CAE 2016
*Preprint, echo=NO, model=NO, history=NO, contact=NO
**
** PARTS
**
*Part, name=LargePipe
*End Part
**  
**
** ASSEMBLY
**
*Assembly, name=Assembly
**  
*Instance, name=LargePipe-1, part=LargePipe
*Node
      1,         9.25,   9.48683262,           0.
      2,           0.,        13.25,         9.25
      3,           0.,          25.,         9.25
      4,         9.25,          25.,           0.
      5,        13.25,           0.,           0.
      6,        13.25,           0.,          40.
      7,           0.,        13.25,          40.
      8,   9.12778473,   9.60448074,   1.49868107
      9,    8.7739439,   9.92876625,   2.92923236
     10,   8.21506786,   10.3959208,   4.25148964
     11,   7.47441435,   10.9405499,   5.44936943
     12,     6.566854,   11.5082111,   6.51451635
     13,   5.50198317,   12.0536585,   7.43577051
     14,   4.28966761,    12.536397,   8.19519711
     15,   2.94640684,   12.9182501,   8.76819134
     16,   1.50149107,   13.1646509,   9.12732315
     17,           0.,   14.4250002,         9.25
     18,           0.,   15.6000004,         9.25
     19,           0.,   16.7749996,         9.25
     20,           0.,   17.9500008,         9.25
** ... 1017 like lines cut
*Element, type=S8R
  1,   1,   8,  98,  43, 362, 363, 364, 365
  2,   8,   9,  99,  98, 366, 367, 368, 363
  3,   9,  10, 100,  99, 369, 370, 371, 367
  4,  10,  11, 101, 100, 372, 373, 374, 370
  5,  11,  12, 102, 101, 375, 376, 377, 373
  6,  12,  13, 103, 102, 378, 379, 380, 376
  7,  13,  14, 104, 103, 381, 382, 383, 379
  8,  14,  15, 105, 104, 384, 385, 386, 382
  9,  15,  16, 106, 105, 387, 388, 389, 385
 10,  16,   2,  17, 106, 390, 391, 392, 388
 11,  43,  98, 107,  42, 364, 393, 394, 395
 12,  98,  99, 108, 107, 368, 396, 397, 393
 13,  99, 100, 109, 108, 371, 398, 399, 396
 14, 100, 101, 110, 109, 374, 400, 401, 398
 15, 101, 102, 111, 110, 377, 402, 403, 400
 16, 102, 103, 112, 111, 380, 404, 405, 402
 17, 103, 104, 113, 112, 383, 406, 407, 404
 18, 104, 105, 114, 113, 386, 408, 409, 406
 19, 105, 106, 115, 114, 389, 410, 411, 408
 20, 106,  17,  18, 115, 392, 412, 413, 410
** ... 296 like lines cut
*Nset, nset=Set-1, generate
    1,  1037,     1
*Elset, elset=Set-1, generate
   1,  316,    1
** Section: PipeSection
*Shell Section, elset=Set-1, material=PipeMaterial
2.5, 5
*End Instance
**  
*Nset, nset=Set-8, instance=LargePipe-1
    2,    3,    7,   17,   18,   19,   20,   21,   22,   23,   24,   25,   44,   45,   46,   47
   48,   49,   50,   51,   52,   53,   54,   55,   56,   57,   58,   59,   60,   61,   62,  391
  412,  433,  454,  475,  496,  517,  538,  559,  580,  582,  586,  589,  592,  862,  874,  886
  898,  910,  922,  934,  946,  958,  970,  982,  994, 1006, 1018, 1030, 1037
*Elset, elset=Set-8, instance=LargePipe-1
  10,  20,  30,  40,  50,  60,  70,  80,  90, 100, 101, 102, 103, 104, 226, 232
 238, 244, 250, 256, 262, 268, 274, 280, 286, 292, 298, 304, 310, 316
*Nset, nset=Set-9, instance=LargePipe-1
   1,   4,   5,  35,  36,  37,  38,  39,  40,  41,  42,  43,  63,  64,  65,  66
  67,  68,  69, 365, 395, 416, 437, 458, 479, 500, 521, 542, 563, 640, 648, 656
 664, 666, 669, 672, 675
*Elset, elset=Set-9, instance=LargePipe-1
   1,  11,  21,  31,  41,  51,  61,  71,  81,  91, 128, 132, 136, 140, 141, 142
 143, 144
*Nset, nset=Set-10, instance=LargePipe-1
   5,   6,  70,  71,  72,  73,  74,  75,  76,  77,  78,  79,  80,  81,  82,  83
  84,  85,  86,  87,  88, 676, 684, 692, 700, 702, 705, 708, 711, 714, 717, 720
 723, 726, 729, 732, 735, 738, 741, 744, 747
*Elset, elset=Set-10, instance=LargePipe-1
 144, 148, 152, 156, 157, 158, 159, 160, 161, 162, 163, 164, 165, 166, 167, 168
 169, 170, 171, 172
*Nset, nset=Set-35, instance=LargePipe-1
    2,    3,    7,   17,   18,   19,   20,   21,   22,   23,   24,   25,   44,   45,   46,   47
   48,   49,   50,   51,   52,   53,   54,   55,   56,   57,   58,   59,   60,   61,   62,  391
  412,  433,  454,  475,  496,  517,  538,  559,  580,  582,  586,  589,  592,  862,  874,  886
  898,  910,  922,  934,  946,  958,  970,  982,  994, 1006, 1018, 1030, 1037
*Elset, elset=Set-35, instance=LargePipe-1
  10,  20,  30,  40,  50,  60,  70,  80,  90, 100, 101, 102, 103, 104, 226, 232
 238, 244, 250, 256, 262, 268, 274, 280, 286, 292, 298, 304, 310, 316
*Nset, nset=Set-36, instance=LargePipe-1
   1,   4,   5,  35,  36,  37,  38,  39,  40,  41,  42,  43,  63,  64,  65,  66
  67,  68,  69, 365, 395, 416, 437, 458, 479, 500, 521, 542, 563, 640, 648, 656
 664, 666, 669, 672, 675
*Elset, elset=Set-36, instance=LargePipe-1
   1,  11,  21,  31,  41,  51,  61,  71,  81,  91, 128, 132, 136, 140, 141, 142
 143, 144
*Nset, nset=Set-37, instance=LargePipe-1
   5,   6,  70,  71,  72,  73,  74,  75,  76,  77,  78,  79,  80,  81,  82,  83
  84,  85,  86,  87,  88, 676, 684, 692, 700, 702, 705, 708, 711, 714, 717, 720
 723, 726, 729, 732, 735, 738, 741, 744, 747
*Elset, elset=Set-37, instance=LargePipe-1
 144, 148, 152, 156, 157, 158, 159, 160, 161, 162, 163, 164, 165, 166, 167, 168
 169, 170, 171, 172
*Elset, elset=_Surf-1_E3, internal, instance=LargePipe-1, generate
  91,  100,    1
*Surface, type=ELEMENT, name=Surf-1
_Surf-1_E3, E3
*Elset, elset=_Surf-2_E3, internal, instance=LargePipe-1, generate
  91,  100,    1
*Surface, type=ELEMENT, name=Surf-2
_Surf-2_E3, E3
*Elset, elset=_Surf-3_E3, internal, instance=LargePipe-1, generate
  91,  100,    1
*Surface, type=ELEMENT, name=Surf-3
_Surf-3_E3, E3
*End Assembly
*Amplitude, name=Amp-1, time=TOTAL TIME
             0.,              0.,          0.0001,              1.,            0.02,              1.
** 
** MATERIALS
** 
*Material, name=PipeMaterial
*Conductivity
 0.00023,
*Density
 0.0008,
*Elastic
 2.9e+07, 0.3
*Expansion
 7e-06,
** ----------------------------------------------------------------
** 
** STEP: StepForDynamicAnalysis
** 
*Step, name=StepForDynamicAnalysis, nlgeom=NO, inc=200
Dynamic 
*Dynamic,direct,nohaf
0.0001,0.02,
** 
** BOUNDARY CONDITIONS
** 
** Name: CentralPipe Type: Displacement/Rotation
*Boundary, amplitude=Amp-1
Set-37, 2, 2
Set-37, 4, 4
Set-37, 6, 6
** Name: LongCentralPipe Type: Displacement/Rotation
*Boundary, amplitude=Amp-1
Set-35, 1, 1
Set-35, 5, 5
Set-35, 6, 6
** Name: ShortPipeCentralSection Type: Displacement/Rotation
*Boundary, amplitude=Amp-1
Set-36, 3, 3
Set-36, 4, 4
Set-36, 5, 5
** 
** LOADS
** 
** Name: AppliedPressure   Type: Shell edge load
*Dsload, amplitude=Amp-1
Surf-3, EDNOR, 55000.
** 
** OUTPUT REQUESTS
** 
*Restart, write, frequency=0
** 
** FIELD OUTPUT: F-Output-1
** 
*Output, field, variable=PRESELECT
** 
** HISTORY OUTPUT: H-Output-1
** 
*Output, history, variable=PRESELECT
*End Step
